aaaaaaaaaaaaaaaaaaaaaaaaaaaaaaaaaaaaaaaaaaaaaaaaaaaaaa


new line.




new line for reflog xxxxxxxxxxxxxxxxxxxxxxxx

ssssssssss






llllllssssss
