merge completed new line.


new line.




new line for reflog xxxxxxxxxxxxxxxxxxxxxxxx

ssssssssss






llllllssssss
