this is a txt file named a.


new line.




new line for reflog xxxxxxxxxxxxxxxxxxxxxxxx

ssssssssss






llllllssssss
