this is a txt file named a.


new line.




new line for reflog

ssssssssss
ssss
